egret/models/tests/pglib_opf_case3_lmbd_acopf_0990.json
{"elements": {"bus": {"1": {"matpower_bustype": "ref", "area": 1.0, "vm": 1.099999983451249, "va": 0.0, "base_kv": 240.0, "zone": 1.0, "v_min": 0.9, "v_max": 1.1, "lmp": 36.95057574232853, "qlmp": 6.705114393487315e-11, "pl": 108.90000000000002, "ql": 39.6}, "2": {"matpower_bustype": "PV", "area": 1.0, "vm": 0.9261705369831064, "va": 0.13319238737700267, "base_kv": 240.0, "zone": 1.0, "v_min": 0.9, "v_max": 1.1, "lmp": 30.038621061588373, "qlmp": -1.2021166240689902e-11, "pl": 108.90000000000002, "ql": 39.6}, "3": {"matpower_bustype": "PV", "area": 1.0, "vm": 0.9, "va": -0.2948657986914972, "base_kv": 240.0, "zone": 1.0, "v_min": 0.9, "v_max": 1.1, "lmp": 44.349329231444045, "qlmp": -9.86183852821856e-12, "pl": 94.05, "ql": 49.5}}, "load": {"load_1": {"in_service": true, "p_load": 108.90000000000002, "q_load": 39.6, "bus": "1"}, "load_2": {"in_service": true, "p_load": 108.90000000000002, "q_load": 39.6, "bus": "2"}, "load_3": {"in_service": true, "p_load": 94.05, "q_load": 49.5, "bus": "3"}}, "generator": {"1": {"bus": "1", "pg": 145.22988975425687, "qg": 54.22769246911542, "vg": 1.0, "mbase": 100.0, "in_service": true, "p_min": 0.0, "p_max": 2000.0, "q_min": -1000.0, "q_max": 1000.0, "generator_type": "thermal", "p_cost": {"data_type": "cost_curve", "cost_curve_type": "polynomial", "values": {"0": 0.0, "1": 5.0, "2": 0.11}}, "startup_cost": 0.0, "shutdown_cost": 0.0}, "2": {"bus": "2", "pg": 169.63894743871046, "qg": -9.129955127370325, "vg": 1.0, "mbase": 100.0, "in_service": true, "p_min": 0.0, "p_max": 2000.0, "q_min": -1000.0, "q_max": 1000.0, "generator_type": "thermal", "p_cost": {"data_type": "cost_curve", "cost_curve_type": "polynomial", "values": {"0": 0.0, "1": 1.2, "2": 0.08500000000000002}}, "startup_cost": 0.0, "shutdown_cost": 0.0}, "3": {"bus": "3", "pg": 0.0, "qg": -5.747172826315389, "vg": 1.0, "mbase": 100.0, "in_service": true, "p_min": 0.0, "p_max": 0.0, "q_min": -1000.0, "q_max": 1000.0, "generator_type": "thermal", "p_cost": {"data_type": "cost_curve", "cost_curve_type": "polynomial", "values": {"0": 0.0, "1": 0.0, "2": 0.0}}, "startup_cost": 0.0, "shutdown_cost": 0.0}}, "branch": {"1": {"from_bus": "1", "to_bus": "3", "resistance": 0.065, "reactance": 0.62, "charging_susceptance": 0.45, "branch_type": "line", "rating_long_term": 9000.0, "rating_short_term": 9000.0, "rating_emergency": 9000.0, "in_service": true, "angle_diff_min": -30.0, "angle_diff_max": 30.0, "pf": 50.29387475005862, "qf": 9.877618194885356, "pt": -48.19556830300025, "qt": -35.31300167964035, "pfl": 2.098306447058368, "qfl": -25.435383484754993, "pf_dual": 3695.057574232987, "qf_dual": 6.739240706083444e-09}, "2": {"from_bus": "3", "to_bus": "2", "resistance": 0.025, "reactance": 0.75, "charging_susceptance": 0.7, "branch_type": "line", "rating_long_term": 50.0, "rating_short_term": 50.0, "rating_emergency": 50.0, "in_service": true, "angle_diff_min": -30.0, "angle_diff_max": 30.0, "pf": -45.85443169699974, "qf": -19.93417114667504, "pt": 46.525251176388196, "qt": -18.313959165828276, "pfl": 0.6708194793884514, "qfl": -38.248130312503314, "pf_dual": 4034.0885522329063, "qf_dual": -174.25796771396014}, "3": {"from_bus": "1", "to_bus": "2", "resistance": 0.042, "reactance": 0.9, "charging_susceptance": 0.3, "branch_type": "line", "rating_long_term": 9000.0, "rating_short_term": 9000.0, "rating_emergency": 9000.0, "in_service": true, "angle_diff_min": -30.0, "angle_diff_max": 30.0, "pf": -13.963984995801773, "qf": 4.750074274230065, "pt": 14.213696262322244, "qt": -30.415995961542052, "pfl": 0.24971126652047204, "qfl": -25.665921687311986, "pf_dual": 3695.057574232813, "qf_dual": 6.7234666031444575e-09}}}, "system": {"model_name": "pglib_opf_case3_lmbd", "mpc_version": "'2'", "baseMVA": 100.0, "reference_bus": "1", "reference_bus_angle": 0.0, "total_cost": 5695.882143771088, "ploss": 3.0188371929672915, "qloss": -89.3494354845703, "mult": 0.99}, "results": {"time": 0.02055501937866211, "#_cons": 36, "#_vars": 23, "termination": "optimal"}}